case118_pso.m
function mpc = case118_pso

%% MATPOWER Case Format : Version 2
mpc.version = '2';

%%-----  Power Flow Data  -----% 
%% system MVA base
mpc.baseMVA = 100.000000;


%%    branch    data
%   fbus  tbus     r         x         b      rateA  rateB  rateC  ratio  angle status angmin angmax
mpc.branch = [
    1       2       0.030300000000000  0.099900000000000  0.025400   9900.00  0.00    0.00    0.000000000   0.000000000   1       -360.000  360.000 ;
    1       3       0.012900000000000  0.042400000000000  0.010820   9900.00  0.00    0.00    0.000000000   0.000000000   1       -360.000  360.000 ;
    4       5       0.001760000000000  0.007980000000000  0.002100   9900.00  0.00    0.00    0.000000000   0.000000000   1       -360.000  360.000 ;
    3       5       0.024100000000000  0.108000000000000  0.028400   9900.00  0.00    0.00    0.000000000   0.000000000   1       -360.000  360.000 ;
    5       6       0.011900000000000  0.054000000000000  0.014260   9900.00  0.00    0.00    0.000000000   0.000000000   1       -360.000  360.000 ;
    6       7       0.004590000000000  0.020800000000000  0.005500   9900.00  0.00    0.00    0.000000000   0.000000000   1       -360.000  360.000 ;
    8       9       0.002440000000000  0.030500000000000  1.162000   9900.00  0.00    0.00    0.000000000   0.000000000   1       -360.000  360.000 ;
    8       5       0.000000000000000  0.026700000000000  0.000000   9900.00  0.00    0.00    0.975000000   0.000000000   1       -360.000  360.000 ;
    9       10      0.002580000000000  0.032200000000000  1.230000   9900.00  0.00    0.00    0.000000000   0.000000000   1       -360.000  360.000 ;
    4       11      0.020900000000000  0.068800000000000  0.017480   9900.00  0.00    0.00    0.000000000   0.000000000   1       -360.000  360.000 ;
    5       11      0.020300000000000  0.068200000000000  0.017380   9900.00  0.00    0.00    0.000000000   0.000000000   1       -360.000  360.000 ;
    11      12      0.005950000000000  0.019600000000000  0.005020   9900.00  0.00    0.00    0.000000000   0.000000000   1       -360.000  360.000 ;
    2       12      0.018700000000000  0.061600000000000  0.015720   9900.00  0.00    0.00    0.000000000   0.000000000   1       -360.000  360.000 ;
    3       12      0.048400000000000  0.160000000000000  0.040600   9900.00  0.00    0.00    0.000000000   0.000000000   1       -360.000  360.000 ;
    7       12      0.008620000000000  0.034000000000000  0.008740   9900.00  0.00    0.00    0.000000000   0.000000000   1       -360.000  360.000 ;
    11      13      0.022250000000000  0.073100000000000  0.018760   9900.00  0.00    0.00    0.000000000   0.000000000   1       -360.000  360.000 ;
    12      14      0.021500000000000  0.070700000000000  0.018160   9900.00  0.00    0.00    0.000000000   0.000000000   1       -360.000  360.000 ;
    13      15      0.074400000000000  0.244400000000000  0.062680   9900.00  0.00    0.00    0.000000000   0.000000000   1       -360.000  360.000 ;
    14      15      0.059500000000000  0.195000000000000  0.050200   9900.00  0.00    0.00    0.000000000   0.000000000   1       -360.000  360.000 ;
    12      16      0.021200000000000  0.083400000000000  0.021400   9900.00  0.00    0.00    0.000000000   0.000000000   1       -360.000  360.000 ;
    15      17      0.013200000000000  0.043700000000000  0.044400   9900.00  0.00    0.00    0.000000000   0.000000000   1       -360.000  360.000 ;
    16      17      0.045400000000000  0.180100000000000  0.046600   9900.00  0.00    0.00    0.000000000   0.000000000   1       -360.000  360.000 ;
    17      18      0.012300000000000  0.050500000000000  0.012980   9900.00  0.00    0.00    0.000000000   0.000000000   1       -360.000  360.000 ;
    18      19      0.011190000000000  0.049300000000000  0.011420   9900.00  0.00    0.00    0.000000000   0.000000000   1       -360.000  360.000 ;
    19      20      0.025200000000000  0.117000000000000  0.029800   9900.00  0.00    0.00    0.000000000   0.000000000   1       -360.000  360.000 ;
    15      19      0.012000000000000  0.039400000000000  0.010100   9900.00  0.00    0.00    0.000000000   0.000000000   1       -360.000  360.000 ;
    20      21      0.018300000000000  0.084900000000000  0.021600   9900.00  0.00    0.00    0.000000000   0.000000000   1       -360.000  360.000 ;
    21      22      0.020900000000000  0.097000000000000  0.024600   9900.00  0.00    0.00    0.000000000   0.000000000   1       -360.000  360.000 ;
    22      23      0.034200000000000  0.159000000000000  0.040400   9900.00  0.00    0.00    0.000000000   0.000000000   1       -360.000  360.000 ;
    23      24      0.013500000000000  0.049200000000000  0.049800   9900.00  0.00    0.00    0.000000000   0.000000000   1       -360.000  360.000 ;
    23      25      0.015600000000000  0.080000000000000  0.086400   9900.00  0.00    0.00    0.000000000   0.000000000   1       -360.000  360.000 ;
    26      25      0.000000000000000  0.038200000000000  0.000000   9900.00  0.00    0.00    1.050000000   0.000000000   1       -360.000  360.000 ;
    25      27      0.031800000000000  0.163000000000000  0.176400   9900.00  0.00    0.00    0.000000000   0.000000000   1       -360.000  360.000 ;
    27      28      0.019130000000000  0.085500000000000  0.021600   9900.00  0.00    0.00    0.000000000   0.000000000   1       -360.000  360.000 ;
    28      29      0.023700000000000  0.094300000000000  0.023800   9900.00  0.00    0.00    0.000000000   0.000000000   1       -360.000  360.000 ;
    30      17      0.000000000000000  0.038800000000000  0.000000   9900.00  0.00    0.00    0.987500000   0.000000000   1       -360.000  360.000 ;
    8       30      0.004310000000000  0.050400000000000  0.514000   9900.00  0.00    0.00    0.000000000   0.000000000   1       -360.000  360.000 ;
    26      30      0.007990000000000  0.086000000000000  0.908000   9900.00  0.00    0.00    0.000000000   0.000000000   1       -360.000  360.000 ;
    17      31      0.047400000000000  0.156300000000000  0.039900   9900.00  0.00    0.00    0.000000000   0.000000000   1       -360.000  360.000 ;
    29      31      0.010800000000000  0.033100000000000  0.008300   9900.00  0.00    0.00    0.000000000   0.000000000   1       -360.000  360.000 ;
    23      32      0.031700000000000  0.115300000000000  0.117300   9900.00  0.00    0.00    0.000000000   0.000000000   1       -360.000  360.000 ;
    31      32      0.029800000000000  0.098500000000000  0.025100   9900.00  0.00    0.00    0.000000000   0.000000000   1       -360.000  360.000 ;
    27      32      0.022900000000000  0.075500000000000  0.019260   9900.00  0.00    0.00    0.000000000   0.000000000   1       -360.000  360.000 ;
    15      33      0.038000000000000  0.124400000000000  0.031940   9900.00  0.00    0.00    0.000000000   0.000000000   1       -360.000  360.000 ;
    19      34      0.075200000000000  0.247000000000000  0.063200   9900.00  0.00    0.00    0.000000000   0.000000000   1       -360.000  360.000 ;
    35      36      0.002240000000000  0.010200000000000  0.002680   9900.00  0.00    0.00    0.000000000   0.000000000   1       -360.000  360.000 ;
    35      37      0.011000000000000  0.049700000000000  0.013180   9900.00  0.00    0.00    0.000000000   0.000000000   1       -360.000  360.000 ;
    33      37      0.041500000000000  0.142000000000000  0.036600   9900.00  0.00    0.00    0.000000000   0.000000000   1       -360.000  360.000 ;
    34      36      0.008710000000000  0.026800000000000  0.005680   9900.00  0.00    0.00    0.000000000   0.000000000   1       -360.000  360.000 ;
    34      37      0.002560000000000  0.009400000000000  0.009840   9900.00  0.00    0.00    0.000000000   0.000000000   1       -360.000  360.000 ;
    38      37      0.000000000000000  0.037500000000000  0.000000   9900.00  0.00    0.00    0.975000000   0.000000000   1       -360.000  360.000 ;
    37      39      0.032100000000000  0.106000000000000  0.027000   9900.00  0.00    0.00    0.000000000   0.000000000   1       -360.000  360.000 ;
    37      40      0.059300000000000  0.168000000000000  0.042000   9900.00  0.00    0.00    0.000000000   0.000000000   1       -360.000  360.000 ;
    30      38      0.004640000000000  0.054000000000000  0.422000   9900.00  0.00    0.00    0.000000000   0.000000000   1       -360.000  360.000 ;
    39      40      0.018400000000000  0.060500000000000  0.015520   9900.00  0.00    0.00    0.000000000   0.000000000   1       -360.000  360.000 ;
    40      41      0.014500000000000  0.048700000000000  0.012220   9900.00  0.00    0.00    0.000000000   0.000000000   1       -360.000  360.000 ;
    40      42      0.055500000000000  0.183000000000000  0.046600   9900.00  0.00    0.00    0.000000000   0.000000000   1       -360.000  360.000 ;
    41      42      0.041000000000000  0.135000000000000  0.034400   9900.00  0.00    0.00    0.000000000   0.000000000   1       -360.000  360.000 ;
    43      44      0.060800000000000  0.245400000000000  0.060680   9900.00  0.00    0.00    0.000000000   0.000000000   1       -360.000  360.000 ;
    34      43      0.041300000000000  0.168100000000000  0.042260   9900.00  0.00    0.00    0.000000000   0.000000000   1       -360.000  360.000 ;
    44      45      0.022400000000000  0.090100000000000  0.022400   9900.00  0.00    0.00    0.000000000   0.000000000   1       -360.000  360.000 ;
    45      46      0.040000000000000  0.135600000000000  0.033200   9900.00  0.00    0.00    0.000000000   0.000000000   1       -360.000  360.000 ;
    46      47      0.038000000000000  0.127000000000000  0.031600   9900.00  0.00    0.00    0.000000000   0.000000000   1       -360.000  360.000 ;
    46      48      0.060100000000000  0.189000000000000  0.047200   9900.00  0.00    0.00    0.000000000   0.000000000   1       -360.000  360.000 ;
    47      49      0.019100000000000  0.062500000000000  0.016040   9900.00  0.00    0.00    0.000000000   0.000000000   1       -360.000  360.000 ;
    42      49      0.071500000000000  0.323000000000000  0.086000   9900.00  0.00    0.00    0.000000000   0.000000000   1       -360.000  360.000 ;
    42      49      0.071500000000000  0.323000000000000  0.086000   9900.00  0.00    0.00    0.000000000   0.000000000   1       -360.000  360.000 ;
    45      49      0.068400000000000  0.186000000000000  0.044400   9900.00  0.00    0.00    0.000000000   0.000000000   1       -360.000  360.000 ;
    48      49      0.017900000000000  0.050500000000000  0.012580   9900.00  0.00    0.00    0.000000000   0.000000000   1       -360.000  360.000 ;
    49      50      0.026700000000000  0.075200000000000  0.018740   9900.00  0.00    0.00    0.000000000   0.000000000   1       -360.000  360.000 ;
    49      51      0.048600000000000  0.137000000000000  0.034200   9900.00  0.00    0.00    0.000000000   0.000000000   1       -360.000  360.000 ;
    51      52      0.020300000000000  0.058800000000000  0.013960   9900.00  0.00    0.00    0.000000000   0.000000000   1       -360.000  360.000 ;
    52      53      0.040500000000000  0.163500000000000  0.040580   9900.00  0.00    0.00    0.000000000   0.000000000   1       -360.000  360.000 ;
    53      54      0.026300000000000  0.122000000000000  0.031000   9900.00  0.00    0.00    0.000000000   0.000000000   1       -360.000  360.000 ;
    49      54      0.073000000000000  0.289000000000000  0.073800   9900.00  0.00    0.00    0.000000000   0.000000000   1       -360.000  360.000 ;
    49      54      0.086900000000000  0.291000000000000  0.073000   9900.00  0.00    0.00    0.000000000   0.000000000   1       -360.000  360.000 ;
    54      55      0.016900000000000  0.070700000000000  0.020200   9900.00  0.00    0.00    0.000000000   0.000000000   1       -360.000  360.000 ;
    54      56      0.002750000000000  0.009550000000000  0.007320   9900.00  0.00    0.00    0.000000000   0.000000000   1       -360.000  360.000 ;
    55      56      0.004880000000000  0.015100000000000  0.003740   9900.00  0.00    0.00    0.000000000   0.000000000   1       -360.000  360.000 ;
    56      57      0.034300000000000  0.096600000000000  0.024200   9900.00  0.00    0.00    0.000000000   0.000000000   1       -360.000  360.000 ;
    50      57      0.047400000000000  0.134000000000000  0.033200   9900.00  0.00    0.00    0.000000000   0.000000000   1       -360.000  360.000 ;
    56      58      0.034300000000000  0.096600000000000  0.024200   9900.00  0.00    0.00    0.000000000   0.000000000   1       -360.000  360.000 ;
    51      58      0.025500000000000  0.071900000000000  0.017880   9900.00  0.00    0.00    0.000000000   0.000000000   1       -360.000  360.000 ;
    54      59      0.050300000000000  0.229300000000000  0.059800   9900.00  0.00    0.00    0.000000000   0.000000000   1       -360.000  360.000 ;
    56      59      0.082500000000000  0.251000000000000  0.056900   9900.00  0.00    0.00    0.000000000   0.000000000   1       -360.000  360.000 ;
    56      59      0.080300000000000  0.239000000000000  0.053600   9900.00  0.00    0.00    0.000000000   0.000000000   1       -360.000  360.000 ;
    55      59      0.047390000000000  0.215800000000000  0.056460   9900.00  0.00    0.00    0.000000000   0.000000000   1       -360.000  360.000 ;
    59      60      0.031700000000000  0.145000000000000  0.037600   9900.00  0.00    0.00    0.000000000   0.000000000   1       -360.000  360.000 ;
    59      61      0.032800000000000  0.150000000000000  0.038800   9900.00  0.00    0.00    0.000000000   0.000000000   1       -360.000  360.000 ;
    60      61      0.002640000000000  0.013500000000000  0.014560   9900.00  0.00    0.00    0.000000000   0.000000000   1       -360.000  360.000 ;
    60      62      0.012300000000000  0.056100000000000  0.014680   9900.00  0.00    0.00    0.000000000   0.000000000   1       -360.000  360.000 ;
    61      62      0.008240000000000  0.037600000000000  0.009800   9900.00  0.00    0.00    0.000000000   0.000000000   1       -360.000  360.000 ;
    63      59      0.000000000000000  0.038600000000000  0.000000   9900.00  0.00    0.00    0.987500000   0.000000000   1       -360.000  360.000 ;
    63      64      0.001720000000000  0.020000000000000  0.216000   9900.00  0.00    0.00    0.000000000   0.000000000   1       -360.000  360.000 ;
    64      61      0.000000000000000  0.026800000000000  0.000000   9900.00  0.00    0.00    1.000000000   0.000000000   1       -360.000  360.000 ;
    38      65      0.009010000000000  0.098600000000000  1.046000   9900.00  0.00    0.00    0.000000000   0.000000000   1       -360.000  360.000 ;
    64      65      0.002690000000000  0.030200000000000  0.380000   9900.00  0.00    0.00    0.000000000   0.000000000   1       -360.000  360.000 ;
    49      66      0.018000000000000  0.091900000000000  0.024800   9900.00  0.00    0.00    0.000000000   0.000000000   1       -360.000  360.000 ;
    49      66      0.018000000000000  0.091900000000000  0.024800   9900.00  0.00    0.00    0.000000000   0.000000000   1       -360.000  360.000 ;
    62      66      0.048200000000000  0.218000000000000  0.057800   9900.00  0.00    0.00    0.000000000   0.000000000   1       -360.000  360.000 ;
    62      67      0.025800000000000  0.117000000000000  0.031000   9900.00  0.00    0.00    0.000000000   0.000000000   1       -360.000  360.000 ;
    65      66      0.000000000000000  0.037000000000000  0.000000   9900.00  0.00    0.00    0.987500000   0.000000000   1       -360.000  360.000 ;
    66      67      0.022400000000000  0.101500000000000  0.026820   9900.00  0.00    0.00    0.000000000   0.000000000   1       -360.000  360.000 ;
    65      68      0.001380000000000  0.016000000000000  0.638000   9900.00  0.00    0.00    0.000000000   0.000000000   1       -360.000  360.000 ;
    47      69      0.084400000000000  0.277800000000000  0.070920   9900.00  0.00    0.00    0.000000000   0.000000000   1       -360.000  360.000 ;
    49      69      0.098500000000000  0.324000000000000  0.082800   9900.00  0.00    0.00    0.000000000   0.000000000   1       -360.000  360.000 ;
    68      69      0.000000000000000  0.037000000000000  0.000000   9900.00  0.00    0.00    0.950000000   0.000000000   1       -360.000  360.000 ;
    69      70      0.030000000000000  0.127000000000000  0.122000   9900.00  0.00    0.00    0.000000000   0.000000000   1       -360.000  360.000 ;
    24      70      0.002210000000000  0.411500000000000  0.101980   9900.00  0.00    0.00    0.000000000   0.000000000   1       -360.000  360.000 ;
    70      71      0.008820000000000  0.035500000000000  0.008780   9900.00  0.00    0.00    0.000000000   0.000000000   1       -360.000  360.000 ;
    24      72      0.048800000000000  0.196000000000000  0.048800   9900.00  0.00    0.00    0.000000000   0.000000000   1       -360.000  360.000 ;
    71      72      0.044600000000000  0.180000000000000  0.044440   9900.00  0.00    0.00    0.000000000   0.000000000   1       -360.000  360.000 ;
    71      73      0.008660000000000  0.045400000000000  0.011780   9900.00  0.00    0.00    0.000000000   0.000000000   1       -360.000  360.000 ;
    70      74      0.040100000000000  0.132300000000000  0.033680   9900.00  0.00    0.00    0.000000000   0.000000000   1       -360.000  360.000 ;
    70      75      0.042800000000000  0.141000000000000  0.036000   9900.00  0.00    0.00    0.000000000   0.000000000   1       -360.000  360.000 ;
    69      75      0.040500000000000  0.122000000000000  0.124000   9900.00  0.00    0.00    0.000000000   0.000000000   1       -360.000  360.000 ;
    74      75      0.012300000000000  0.040600000000000  0.010340   9900.00  0.00    0.00    0.000000000   0.000000000   1       -360.000  360.000 ;
    76      77      0.044400000000000  0.148000000000000  0.036800   9900.00  0.00    0.00    0.000000000   0.000000000   1       -360.000  360.000 ;
    69      77      0.030900000000000  0.101000000000000  0.103800   9900.00  0.00    0.00    0.000000000   0.000000000   1       -360.000  360.000 ;
    75      77      0.060100000000000  0.199900000000000  0.049780   9900.00  0.00    0.00    0.000000000   0.000000000   1       -360.000  360.000 ;
    77      78      0.003760000000000  0.012400000000000  0.012640   9900.00  0.00    0.00    0.000000000   0.000000000   1       -360.000  360.000 ;
    78      79      0.005460000000000  0.024400000000000  0.006480   9900.00  0.00    0.00    0.000000000   0.000000000   1       -360.000  360.000 ;
    77      80      0.017000000000000  0.048500000000000  0.047200   9900.00  0.00    0.00    0.000000000   0.000000000   1       -360.000  360.000 ;
    77      80      0.029400000000000  0.105000000000000  0.022800   9900.00  0.00    0.00    0.000000000   0.000000000   1       -360.000  360.000 ;
    79      80      0.015600000000000  0.070400000000000  0.018700   9900.00  0.00    0.00    0.000000000   0.000000000   1       -360.000  360.000 ;
    68      81      0.001750000000000  0.020200000000000  0.808000   9900.00  0.00    0.00    0.000000000   0.000000000   1       -360.000  360.000 ;
    81      80      0.000000000000000  0.037000000000000  0.000000   9900.00  0.00    0.00    0.987500000   0.000000000   1       -360.000  360.000 ;
    77      82      0.029800000000000  0.085300000000000  0.081740   9900.00  0.00    0.00    0.000000000   0.000000000   1       -360.000  360.000 ;
    82      83      0.011200000000000  0.036650000000000  0.037960   9900.00  0.00    0.00    0.000000000   0.000000000   1       -360.000  360.000 ;
    83      84      0.062500000000000  0.132000000000000  0.025800   9900.00  0.00    0.00    0.000000000   0.000000000   1       -360.000  360.000 ;
    83      85      0.043000000000000  0.148000000000000  0.034800   9900.00  0.00    0.00    0.000000000   0.000000000   1       -360.000  360.000 ;
    84      85      0.030200000000000  0.064100000000000  0.012340   9900.00  0.00    0.00    0.000000000   0.000000000   1       -360.000  360.000 ;
    85      86      0.035000000000000  0.123000000000000  0.027600   9900.00  0.00    0.00    0.000000000   0.000000000   1       -360.000  360.000 ;
    86      87      0.028280000000000  0.207400000000000  0.044500   9900.00  0.00    0.00    0.000000000   0.000000000   1       -360.000  360.000 ;
    85      88      0.020000000000000  0.102000000000000  0.027600   9900.00  0.00    0.00    0.000000000   0.000000000   1       -360.000  360.000 ;
    85      89      0.023900000000000  0.173000000000000  0.047000   9900.00  0.00    0.00    0.000000000   0.000000000   1       -360.000  360.000 ;
    88      89      0.013900000000000  0.071200000000000  0.019340   9900.00  0.00    0.00    0.000000000   0.000000000   1       -360.000  360.000 ;
    89      90      0.051800000000000  0.188000000000000  0.052800   9900.00  0.00    0.00    0.000000000   0.000000000   1       -360.000  360.000 ;
    89      90      0.023800000000000  0.099700000000000  0.106000   9900.00  0.00    0.00    0.000000000   0.000000000   1       -360.000  360.000 ;
    90      91      0.025400000000000  0.083600000000000  0.021400   9900.00  0.00    0.00    0.000000000   0.000000000   1       -360.000  360.000 ;
    89      92      0.009900000000000  0.050500000000000  0.054800   9900.00  0.00    0.00    0.000000000   0.000000000   1       -360.000  360.000 ;
    89      92      0.039300000000000  0.158100000000000  0.041400   9900.00  0.00    0.00    0.000000000   0.000000000   1       -360.000  360.000 ;
    91      92      0.038700000000000  0.127200000000000  0.032680   9900.00  0.00    0.00    0.000000000   0.000000000   1       -360.000  360.000 ;
    92      93      0.025800000000000  0.084800000000000  0.021800   9900.00  0.00    0.00    0.000000000   0.000000000   1       -360.000  360.000 ;
    92      94      0.048100000000000  0.158000000000000  0.040600   9900.00  0.00    0.00    0.000000000   0.000000000   1       -360.000  360.000 ;
    93      94      0.022300000000000  0.073200000000000  0.018760   9900.00  0.00    0.00    0.000000000   0.000000000   1       -360.000  360.000 ;
    94      95      0.013200000000000  0.043400000000000  0.011100   9900.00  0.00    0.00    0.000000000   0.000000000   1       -360.000  360.000 ;
    80      96      0.035600000000000  0.182000000000000  0.049400   9900.00  0.00    0.00    0.000000000   0.000000000   1       -360.000  360.000 ;
    82      96      0.016200000000000  0.053000000000000  0.054400   9900.00  0.00    0.00    0.000000000   0.000000000   1       -360.000  360.000 ;
    94      96      0.026900000000000  0.086900000000000  0.023000   9900.00  0.00    0.00    0.000000000   0.000000000   1       -360.000  360.000 ;
    80      97      0.018300000000000  0.093400000000000  0.025400   9900.00  0.00    0.00    0.000000000   0.000000000   1       -360.000  360.000 ;
    80      98      0.023800000000000  0.108000000000000  0.028600   9900.00  0.00    0.00    0.000000000   0.000000000   1       -360.000  360.000 ;
    80      99      0.045400000000000  0.206000000000000  0.054600   9900.00  0.00    0.00    0.000000000   0.000000000   1       -360.000  360.000 ;
    92      100     0.064800000000000  0.295000000000000  0.047200   9900.00  0.00    0.00    0.000000000   0.000000000   1       -360.000  360.000 ;
    94      100     0.017800000000000  0.058000000000000  0.060400   9900.00  0.00    0.00    0.000000000   0.000000000   1       -360.000  360.000 ;
    95      96      0.017100000000000  0.054700000000000  0.014740   9900.00  0.00    0.00    0.000000000   0.000000000   1       -360.000  360.000 ;
    96      97      0.017300000000000  0.088500000000000  0.024000   9900.00  0.00    0.00    0.000000000   0.000000000   1       -360.000  360.000 ;
    98      100     0.039700000000000  0.179000000000000  0.047600   9900.00  0.00    0.00    0.000000000   0.000000000   1       -360.000  360.000 ;
    99      100     0.018000000000000  0.081300000000000  0.021600   9900.00  0.00    0.00    0.000000000   0.000000000   1       -360.000  360.000 ;
    100     101     0.027700000000000  0.126200000000000  0.032800   9900.00  0.00    0.00    0.000000000   0.000000000   1       -360.000  360.000 ;
    92      102     0.012300000000000  0.055900000000000  0.014640   9900.00  0.00    0.00    0.000000000   0.000000000   1       -360.000  360.000 ;
    101     102     0.024600000000000  0.112000000000000  0.029400   9900.00  0.00    0.00    0.000000000   0.000000000   1       -360.000  360.000 ;
    100     103     0.016000000000000  0.052500000000000  0.053600   9900.00  0.00    0.00    0.000000000   0.000000000   1       -360.000  360.000 ;
    100     104     0.045100000000000  0.204000000000000  0.054100   9900.00  0.00    0.00    0.000000000   0.000000000   1       -360.000  360.000 ;
    103     104     0.046600000000000  0.158400000000000  0.040700   9900.00  0.00    0.00    0.000000000   0.000000000   1       -360.000  360.000 ;
    103     105     0.053500000000000  0.162500000000000  0.040800   9900.00  0.00    0.00    0.000000000   0.000000000   1       -360.000  360.000 ;
    100     106     0.060500000000000  0.229000000000000  0.062000   9900.00  0.00    0.00    0.000000000   0.000000000   1       -360.000  360.000 ;
    104     105     0.009940000000000  0.037800000000000  0.009860   9900.00  0.00    0.00    0.000000000   0.000000000   1       -360.000  360.000 ;
    105     106     0.014000000000000  0.054700000000000  0.014340   9900.00  0.00    0.00    0.000000000   0.000000000   1       -360.000  360.000 ;
    105     107     0.053000000000000  0.183000000000000  0.047200   9900.00  0.00    0.00    0.000000000   0.000000000   1       -360.000  360.000 ;
    105     108     0.026100000000000  0.070300000000000  0.018440   9900.00  0.00    0.00    0.000000000   0.000000000   1       -360.000  360.000 ;
    106     107     0.053000000000000  0.183000000000000  0.047200   9900.00  0.00    0.00    0.000000000   0.000000000   1       -360.000  360.000 ;
    108     109     0.010500000000000  0.028800000000000  0.007600   9900.00  0.00    0.00    0.000000000   0.000000000   1       -360.000  360.000 ;
    103     110     0.039060000000000  0.181300000000000  0.046100   9900.00  0.00    0.00    0.000000000   0.000000000   1       -360.000  360.000 ;
    109     110     0.027800000000000  0.076200000000000  0.020200   9900.00  0.00    0.00    0.000000000   0.000000000   1       -360.000  360.000 ;
    110     111     0.022000000000000  0.075500000000000  0.020000   9900.00  0.00    0.00    0.000000000   0.000000000   1       -360.000  360.000 ;
    110     112     0.024700000000000  0.064000000000000  0.062000   9900.00  0.00    0.00    0.000000000   0.000000000   1       -360.000  360.000 ;
    17      113     0.009130000000000  0.030100000000000  0.007680   9900.00  0.00    0.00    0.000000000   0.000000000   1       -360.000  360.000 ;
    32      113     0.061500000000000  0.203000000000000  0.051800   9900.00  0.00    0.00    0.000000000   0.000000000   1       -360.000  360.000 ;
    32      114     0.013500000000000  0.061200000000000  0.016280   9900.00  0.00    0.00    0.000000000   0.000000000   1       -360.000  360.000 ;
    27      115     0.016400000000000  0.074100000000000  0.019720   9900.00  0.00    0.00    0.000000000   0.000000000   1       -360.000  360.000 ;
    114     115     0.002300000000000  0.010400000000000  0.002760   9900.00  0.00    0.00    0.000000000   0.000000000   1       -360.000  360.000 ;
    68      116     0.000340000000000  0.004050000000000  0.164000   9900.00  0.00    0.00    0.000000000   0.000000000   1       -360.000  360.000 ;
    12      117     0.032900000000000  0.140000000000000  0.035800   9900.00  0.00    0.00    0.000000000   0.000000000   1       -360.000  360.000 ;
    75      118     0.014500000000000  0.048100000000000  0.011980   9900.00  0.00    0.00    0.000000000   0.000000000   1       -360.000  360.000 ;
    76      118     0.016400000000000  0.054400000000000  0.013560   9900.00  0.00    0.00    0.000000000   0.000000000   1       -360.000  360.000 ;
];


%%    bus    data
% bus_i  type    Pd      Qd    Gs     Bs     area     Vm     Va   baseKV zone  Vmax  Vmin
mpc.bus = [
    1       2       51.000000000    27.000000000    0.000000   0.000000   1       1.034017240   17.233549799   138.0   1       1.06   0.94  ;
    2       1       20.000000000    9.000000000     0.000000   0.000000   1       1.039264999   17.356923796   138.0   1       1.06   0.94  ;
    3       1       39.000000000    10.000000000    0.000000   0.000000   1       1.039170755   17.695709636   138.0   1       1.06   0.94  ;
    4       2       39.000000000    12.000000000    0.000000   0.000000   1       1.059984510   20.343273036   138.0   1       1.06   0.94  ;
    5       1       0.000000000     0.000000000     0.000000   -40.000000  1       1.059999828   20.756068635   138.0   1       1.06   0.94  ;
    6       2       52.000000000    22.000000000    0.000000   0.000000   1       1.052708549   18.485896365   138.0   1       1.06   0.94  ;
    7       1       19.000000000    2.000000000     0.000000   0.000000   1       1.051116379   18.180909978   138.0   1       1.06   0.94  ;
    8       2       28.000000000    0.000000000     0.000000   0.000000   1       1.043441699   24.858640214   345.0   1       1.06   0.94  ;
    9       1       0.000000000     0.000000000     0.000000   0.000000   1       1.059999933   31.089837342   345.0   1       1.06   0.94  ;
    10      2       0.000000000     0.000000000     0.000000   0.000000   1       1.050389779   37.805641410   345.0   1       1.06   0.94  ;
    11      1       70.000000000    23.000000000    0.000000   0.000000   1       1.046620510   18.336338374   138.0   1       1.06   0.94  ;
    12      2       47.000000000    10.000000000    0.000000   0.000000   1       1.050188562   18.012006338   138.0   1       1.06   0.94  ;
    13      1       34.000000000    16.000000000    0.000000   0.000000   1       1.035114699   17.199086800   138.0   1       1.06   0.94  ;
    14      1       14.000000000    1.000000000     0.000000   0.000000   1       1.049159702   17.431086744   138.0   1       1.06   0.94  ;
    15      2       90.000000000    30.000000000    0.000000   0.000000   1       1.049249572   17.333555704   138.0   1       1.06   0.94  ;
    16      1       25.000000000    10.000000000    0.000000   0.000000   1       1.046302442   17.706342250   138.0   1       1.06   0.94  ;
    17      1       11.000000000    3.000000000     0.000000   0.000000   1       1.059999950   19.230773201   138.0   1       1.06   0.94  ;
    18      2       60.000000000    34.000000000    0.000000   0.000000   1       1.051181004   17.616643870   138.0   1       1.06   0.94  ;
    19      2       45.000000000    25.000000000    0.000000   0.000000   1       1.048594830   17.243693368   138.0   1       1.06   0.94  ;
    20      1       18.000000000    3.000000000     0.000000   0.000000   1       1.037640238   17.521112743   138.0   1       1.06   0.94  ;
    21      1       14.000000000    8.000000000     0.000000   0.000000   1       1.033228777   18.539958503   138.0   1       1.06   0.94  ;
    22      1       10.000000000    5.000000000     0.000000   0.000000   1       1.036930133   20.369397113   138.0   1       1.06   0.94  ;
    23      1       7.000000000     3.000000000     0.000000   0.000000   1       1.051707260   24.125890350   138.0   1       1.06   0.94  ;
    24      2       13.000000000    0.000000000     0.000000   0.000000   1       1.050731322   23.601552872   138.0   1       1.06   0.94  ;
    25      2       0.000000000     0.000000000     0.000000   0.000000   1       1.059999925   30.389763100   138.0   1       1.06   0.94  ;
    26      2       0.000000000     0.000000000     0.000000   0.000000   1       1.059999827   32.022779695   345.0   1       1.06   0.94  ;
    27      2       71.000000000    13.000000000    0.000000   0.000000   1       1.045739736   19.822136864   138.0   1       1.06   0.94  ;
    28      1       17.000000000    7.000000000     0.000000   0.000000   1       1.038714541   18.460085259   138.0   1       1.06   0.94  ;
    29      1       24.000000000    4.000000000     0.000000   0.000000   1       1.038619906   17.743651375   138.0   1       1.06   0.94  ;
    30      1       0.000000000     0.000000000     0.000000   0.000000   1       1.057137253   23.163553537   345.0   1       1.06   0.94  ;
    31      2       43.000000000    27.000000000    0.000000   0.000000   1       1.041515995   17.896222491   138.0   1       1.06   0.94  ;
    32      2       59.000000000    23.000000000    0.000000   0.000000   1       1.044792175   19.426291721   138.0   1       1.06   0.94  ;
    33      1       23.000000000    9.000000000     0.000000   0.000000   1       1.046523757   16.844347818   138.0   1       1.06   0.94  ;
    34      2       59.000000000    26.000000000    0.000000   18.500000  1       1.056584649   17.440586452   138.0   1       1.06   0.94  ;
    35      1       33.000000000    9.000000000     0.000000   0.000000   1       1.054630531   17.098767722   138.0   1       1.06   0.94  ;
    36      2       31.000000000    17.000000000    0.000000   0.000000   1       1.055039448   17.104475019   138.0   1       1.06   0.94  ;
    37      1       0.000000000     0.000000000     0.000000   -25.000000  1       1.059999196   17.866106352   138.0   1       1.06   0.94  ;
    38      1       0.000000000     0.000000000     0.000000   0.000000   1       1.054079079   21.529156692   345.0   1       1.06   0.94  ;
    39      1       27.000000000    11.000000000    0.000000   0.000000   1       1.043857114   16.147562672   138.0   1       1.06   0.94  ;
    40      2       66.000000000    23.000000000    0.000000   0.000000   1       1.044690967   15.926998501   138.0   1       1.06   0.94  ;
    41      1       37.000000000    10.000000000    0.000000   0.000000   1       1.038221418   15.493862546   138.0   1       1.06   0.94  ;
    42      2       96.000000000    23.000000000    0.000000   0.000000   1       1.044828861   16.773005596   138.0   1       1.06   0.94  ;
    43      1       18.000000000    7.000000000     0.000000   0.000000   1       1.042377520   16.715336994   138.0   1       1.06   0.94  ;
    44      1       16.000000000    8.000000000     0.000000   4.000000   1       1.035760546   17.935864193   138.0   1       1.06   0.94  ;
    45      1       53.000000000    22.000000000    0.000000   19.500000  1       1.036472466   19.165129322   138.0   1       1.06   0.94  ;
    46      2       28.000000000    10.000000000    0.000000   20.500000  1       1.045735052   21.495289069   138.0   1       1.06   0.94  ;
    47      1       34.000000000    0.000000000     0.000000   0.000000   1       1.052691291   23.304014540   138.0   1       1.06   0.94  ;
    48      1       20.000000000    11.000000000    0.000000   7.500000   1       1.053169135   22.930827800   138.0   1       1.06   0.94  ;
    49      2       87.000000000    30.000000000    0.000000   0.000000   1       1.058723856   23.834788807   138.0   1       1.06   0.94  ;
    50      1       17.000000000    4.000000000     0.000000   0.000000   1       1.048797443   22.073329285   138.0   1       1.06   0.94  ;
    51      1       17.000000000    8.000000000     0.000000   0.000000   1       1.032364901   19.868167807   138.0   1       1.06   0.94  ;
    52      1       18.000000000    5.000000000     0.000000   0.000000   1       1.026956399   19.054421997   138.0   1       1.06   0.94  ;
    53      1       23.000000000    11.000000000    0.000000   0.000000   1       1.026766107   18.328557234   138.0   1       1.06   0.94  ;
    54      2       113.000000000   32.000000000    0.000000   0.000000   1       1.041578789   19.199931738   138.0   1       1.06   0.94  ;
    55      2       63.000000000    22.000000000    0.000000   0.000000   1       1.041569926   19.140466132   138.0   1       1.06   0.94  ;
    56      2       84.000000000    18.000000000    0.000000   0.000000   1       1.041272000   19.195365392   138.0   1       1.06   0.94  ;
    57      1       12.000000000    3.000000000     0.000000   0.000000   1       1.041869340   20.050151159   138.0   1       1.06   0.94  ;
    58      1       12.000000000    3.000000000     0.000000   0.000000   1       1.034142275   19.321105040   138.0   1       1.06   0.94  ;
    59      2       277.000000000   113.000000000   0.000000   0.000000   1       1.058114519   21.825953873   138.0   1       1.06   0.94  ;
    60      1       78.000000000    3.000000000     0.000000   0.000000   1       1.057662564   24.660110155   138.0   1       1.06   0.94  ;
    61      2       0.000000000     0.000000000     0.000000   0.000000   1       1.059999979   25.409582539   138.0   1       1.06   0.94  ;
    62      2       77.000000000    14.000000000    0.000000   0.000000   1       1.055994530   24.879360700   138.0   1       1.06   0.94  ;
    63      1       0.000000000     0.000000000     0.000000   0.000000   1       1.053754287   24.488283062   345.0   1       1.06   0.94  ;
    64      1       0.000000000     0.000000000     0.000000   0.000000   1       1.059313759   25.869126724   345.0   1       1.06   0.94  ;
    65      2       0.000000000     0.000000000     0.000000   0.000000   1       1.059999922   28.509008635   345.0   1       1.06   0.94  ;
    66      2       39.000000000    18.000000000    0.000000   0.000000   1       1.059999920   28.854260516   138.0   1       1.06   0.94  ;
    67      1       28.000000000    7.000000000     0.000000   0.000000   1       1.052257279   26.251431300   138.0   1       1.06   0.94  ;
    68      1       0.000000000     0.000000000     0.000000   0.000000   1       1.056705170   28.002837521   345.0   1       1.06   0.94  ;
    69      3       0.000000000     0.000000000     0.000000   0.000000   1       1.059999950   30.000000000   138.0   1       1.06   0.94  ;
    70      2       66.000000000    20.000000000    0.000000   0.000000   1       1.039601960   23.703075149   138.0   1       1.06   0.94  ;
    71      1       0.000000000     0.000000000     0.000000   0.000000   1       1.040155586   23.476454551   138.0   1       1.06   0.94  ;
    72      2       12.000000000    0.000000000     0.000000   0.000000   1       1.042326998   22.946723064   138.0   1       1.06   0.94  ;
    73      2       6.000000000     0.000000000     0.000000   0.000000   1       1.038958420   23.339337316   138.0   1       1.06   0.94  ;
    74      2       68.000000000    27.000000000    0.000000   30.000000  1       1.031659965   22.798477602   138.0   1       1.06   0.94  ;
    75      1       47.000000000    11.000000000    0.000000   0.000000   1       1.029305339   23.729129186   138.0   1       1.06   0.94  ;
    76      2       68.000000000    36.000000000    0.000000   0.000000   1       1.015322103   22.910494549   138.0   1       1.06   0.94  ;
    77      2       61.000000000    28.000000000    0.000000   0.000000   1       1.047792456   26.143305865   138.0   1       1.06   0.94  ;
    78      1       71.000000000    26.000000000    0.000000   0.000000   1       1.043901100   25.857613462   138.0   1       1.06   0.94  ;
    79      1       39.000000000    32.000000000    0.000000   30.000000  1       1.046743733   26.113837560   138.0   1       1.06   0.94  ;
    80      2       130.000000000   26.000000000    0.000000   0.000000   1       1.059999750   28.278895960   138.0   1       1.06   0.94  ;
    81      1       0.000000000     0.000000000     0.000000   0.000000   1       1.058772616   28.095558039   345.0   1       1.06   0.94  ;
    82      1       54.000000000    27.000000000    0.000000   30.000000  1       1.042292056   25.455942061   138.0   1       1.06   0.94  ;
    83      1       20.000000000    10.000000000    0.000000   11.000000  1       1.044047902   25.915480134   138.0   1       1.06   0.94  ;
    84      1       11.000000000    7.000000000     0.000000   0.000000   1       1.045272641   27.205629806   138.0   1       1.06   0.94  ;
    85      2       24.000000000    15.000000000    0.000000   0.000000   1       1.052299448   28.116664004   138.0   1       1.06   0.94  ;
    86      1       21.000000000    10.000000000    0.000000   0.000000   1       1.045433084   27.016389735   138.0   1       1.06   0.94  ;
    87      2       0.000000000     0.000000000     0.000000   0.000000   1       1.057010854   27.327361845   161.0   1       1.06   0.94  ;
    88      1       48.000000000    10.000000000    0.000000   0.000000   1       1.048881069   30.234556845   138.0   1       1.06   0.94  ;
    89      2       0.000000000     0.000000000     0.000000   0.000000   1       1.059999961   33.411238584   138.0   1       1.06   0.94  ;
    90      2       163.000000000   42.000000000    0.000000   0.000000   1       1.041808102   27.997777342   138.0   1       1.06   0.94  ;
    91      2       10.000000000    0.000000000     0.000000   0.000000   1       1.045704947   28.295346416   138.0   1       1.06   0.94  ;
    92      2       65.000000000    10.000000000    0.000000   0.000000   1       1.050260844   29.496539008   138.0   1       1.06   0.94  ;
    93      1       12.000000000    7.000000000     0.000000   0.000000   1       1.040659543   27.811187300   138.0   1       1.06   0.94  ;
    94      1       30.000000000    16.000000000    0.000000   0.000000   1       1.038881975   26.749341625   138.0   1       1.06   0.94  ;
    95      1       42.000000000    31.000000000    0.000000   0.000000   1       1.028258912   25.991421027   138.0   1       1.06   0.94  ;
    96      1       38.000000000    15.000000000    0.000000   0.000000   1       1.037567898   26.000055265   138.0   1       1.06   0.94  ;
    97      1       15.000000000    9.000000000     0.000000   0.000000   1       1.044230370   26.793617233   138.0   1       1.06   0.94  ;
    98      1       34.000000000    8.000000000     0.000000   0.000000   1       1.051980245   26.735768722   138.0   1       1.06   0.94  ;
    99      2       42.000000000    0.000000000     0.000000   0.000000   1       1.054123770   26.262878754   138.0   1       1.06   0.94  ;
    100     2       37.000000000    18.000000000    0.000000   0.000000   1       1.058566404   27.229239102   138.0   1       1.06   0.94  ;
    101     1       22.000000000    15.000000000    0.000000   0.000000   1       1.042974330   27.406820719   138.0   1       1.06   0.94  ;
    102     1       5.000000000     3.000000000     0.000000   0.000000   1       1.047075552   28.709183660   138.0   1       1.06   0.94  ;
    103     2       23.000000000    16.000000000    0.000000   0.000000   1       1.051552216   25.204693151   138.0   1       1.06   0.94  ;
    104     2       38.000000000    25.000000000    0.000000   0.000000   1       1.042707409   23.066971383   138.0   1       1.06   0.94  ;
    105     2       31.000000000    26.000000000    0.000000   7.500000   1       1.040441568   22.544182113   138.0   1       1.06   0.94  ;
    106     1       43.000000000    16.000000000    0.000000   0.000000   1       1.034410337   22.288029257   138.0   1       1.06   0.94  ;
    107     2       50.000000000    12.000000000    0.000000   18.500000  1       1.034399837   21.361511549   138.0   1       1.06   0.94  ;
    108     1       2.000000000     1.000000000     0.000000   0.000000   1       1.039447920   22.249119428   138.0   1       1.06   0.94  ;
    109     1       8.000000000     3.000000000     0.000000   0.000000   1       1.039150828   22.161043669   138.0   1       1.06   0.94  ;
    110     2       39.000000000    30.000000000    0.000000   3.500000   1       1.041607212   22.229114067   138.0   1       1.06   0.94  ;
    111     2       0.000000000     0.000000000     0.000000   0.000000   1       1.049340726   23.613945091   138.0   1       1.06   0.94  ;
    112     2       68.000000000    13.000000000    0.000000   0.000000   1       1.034311260   21.151389346   138.0   1       1.06   0.94  ;
    113     2       6.000000000     0.000000000     0.000000   0.000000   1       1.056525813   19.192494534   138.0   1       1.06   0.94  ;
    114     1       8.000000000     3.000000000     0.000000   0.000000   1       1.040686245   19.111379394   138.0   1       1.06   0.94  ;
    115     1       22.000000000    7.000000000     0.000000   0.000000   1       1.040364173   19.099284307   138.0   1       1.06   0.94  ;
    116     2       184.000000000   0.000000000     0.000000   0.000000   1       1.057798705   27.613075309   138.0   1       1.06   0.94  ;
    117     1       20.000000000    8.000000000     0.000000   0.000000   1       1.035309139   16.641796071   138.0   1       1.06   0.94  ;
    118     1       33.000000000    15.000000000    0.000000   0.000000   1       1.016759438   22.941583950   138.0   1       1.06   0.94  ;
];


%%    generator    data
%    bus   Pg       Qg    Qmax  Qmin    Vg    mBase  status Pmax   Pmin  Pc1 Pc2  Qc1min  Qc1max   Qc2min   Qc2max   ramp_agc    ramp_10   ramp_30   ramp_q    apf
mpc.gen = [
    1       25.184372489     14.999810137     15.00     -5.00     1.034017240   100.000  1     100.0   0.0     0.000    0.000    0.000    0.000    0.000    0.000    0.000    0.000    0.000    0.000    0      ;
    4       0.000074565      36.439849659     300.00    -300.00   1.059984510   100.000  1     100.0   0.0     0.000    0.000    0.000    0.000    0.000    0.000    0.000    0.000    0.000    0.000    0      ;
    6       0.003886303      27.896079389     50.00     -13.00    1.052708549   100.000  1     100.0   0.0     0.000    0.000    0.000    0.000    0.000    0.000    0.000    0.000    0.000    0.000    0      ;
    8       0.000064167      -75.885088136    300.00    -300.00   1.043441699   100.000  1     100.0   0.0     0.000    0.000    0.000    0.000    0.000    0.000    0.000    0.000    0.000    0.000    0      ;
    10      401.185499575    -107.621906132   200.00    -147.00   1.050389779   100.000  1     550.0   0.0     0.000    0.000    0.000    0.000    0.000    0.000    0.000    0.000    0.000    0.000    0      ;
    12      85.634145907     51.771311496     120.00    -35.00    1.050188562   100.000  1     185.0   0.0     0.000    0.000    0.000    0.000    0.000    0.000    0.000    0.000    0.000    0.000    0      ;
    15      19.846604270     25.958354117     30.00     -10.00    1.049249572   100.000  1     100.0   0.0     0.000    0.000    0.000    0.000    0.000    0.000    0.000    0.000    0.000    0.000    0      ;
    18      12.350680410     32.587193080     50.00     -16.00    1.051181004   100.000  1     100.0   0.0     0.000    0.000    0.000    0.000    0.000    0.000    0.000    0.000    0.000    0.000    0      ;
    19      20.854825233     23.936004617     24.00     -8.00     1.048594830   100.000  1     100.0   0.0     0.000    0.000    0.000    0.000    0.000    0.000    0.000    0.000    0.000    0.000    0      ;
    24      0.000076906      -2.053932899     300.00    -300.00   1.050731322   100.000  1     100.0   0.0     0.000    0.000    0.000    0.000    0.000    0.000    0.000    0.000    0.000    0.000    0      ;
    25      194.326080276    113.081637876    140.00    -47.00    1.059999925   100.000  1     320.0   0.0     0.000    0.000    0.000    0.000    0.000    0.000    0.000    0.000    0.000    0.000    0      ;
    26      280.538800764    -182.842954583   1000.00   -1000.00  1.059999827   100.000  1     414.0   0.0     0.000    0.000    0.000    0.000    0.000    0.000    0.000    0.000    0.000    0.000    0      ;
    27      10.781314015     29.761786830     300.00    -300.00   1.045739736   100.000  1     100.0   0.0     0.000    0.000    0.000    0.000    0.000    0.000    0.000    0.000    0.000    0.000    0      ;
    31      7.247448533      27.532350779     300.00    -300.00   1.041515995   100.000  1     107.0   0.0     0.000    0.000    0.000    0.000    0.000    0.000    0.000    0.000    0.000    0.000    0      ;
    32      15.359949746     23.061883153     42.00     -14.00    1.044792175   100.000  1     100.0   0.0     0.000    0.000    0.000    0.000    0.000    0.000    0.000    0.000    0.000    0.000    0      ;
    34      3.123086081      -6.743405549     24.00     -8.00     1.056584649   100.000  1     100.0   0.0     0.000    0.000    0.000    0.000    0.000    0.000    0.000    0.000    0.000    0.000    0      ;
    36      9.086390744      22.077505551     24.00     -8.00     1.055039448   100.000  1     100.0   0.0     0.000    0.000    0.000    0.000    0.000    0.000    0.000    0.000    0.000    0.000    0      ;
    40      48.560546345     29.420076221     300.00    -300.00   1.044690967   100.000  1     100.0   0.0     0.000    0.000    0.000    0.000    0.000    0.000    0.000    0.000    0.000    0.000    0      ;
    42      40.931452158     20.906912425     300.00    -300.00   1.044828861   100.000  1     100.0   0.0     0.000    0.000    0.000    0.000    0.000    0.000    0.000    0.000    0.000    0.000    0      ;
    46      19.056853284     -16.882691889    100.00    -100.00   1.045735052   100.000  1     119.0   0.0     0.000    0.000    0.000    0.000    0.000    0.000    0.000    0.000    0.000    0.000    0      ;
    49      193.738085425    52.910117291     210.00    -85.00    1.058723856   100.000  1     304.0   0.0     0.000    0.000    0.000    0.000    0.000    0.000    0.000    0.000    0.000    0.000    0      ;
    54      49.512070814     34.065046748     300.00    -300.00   1.041578789   100.000  1     148.0   0.0     0.000    0.000    0.000    0.000    0.000    0.000    0.000    0.000    0.000    0.000    0      ;
    55      31.478936329     19.794898395     23.00     -8.00     1.041569926   100.000  1     100.0   0.0     0.000    0.000    0.000    0.000    0.000    0.000    0.000    0.000    0.000    0.000    0      ;
    56      31.917372332     14.805817241     15.00     -8.00     1.041272000   100.000  1     100.0   0.0     0.000    0.000    0.000    0.000    0.000    0.000    0.000    0.000    0.000    0.000    0      ;
    59      149.587756644    101.644270375    180.00    -60.00    1.058114519   100.000  1     255.0   0.0     0.000    0.000    0.000    0.000    0.000    0.000    0.000    0.000    0.000    0.000    0      ;
    61      148.475069166    -4.749490448     300.00    -100.00   1.059999979   100.000  1     260.0   0.0     0.000    0.000    0.000    0.000    0.000    0.000    0.000    0.000    0.000    0.000    0      ;
    62      0.000039740      13.346030580     20.00     -20.00    1.055994530   100.000  1     100.0   0.0     0.000    0.000    0.000    0.000    0.000    0.000    0.000    0.000    0.000    0.000    0      ;
    65      353.117619476    -66.997826661    200.00    -67.00    1.059999922   100.000  1     491.0   0.0     0.000    0.000    0.000    0.000    0.000    0.000    0.000    0.000    0.000    0.000    0      ;
    66      349.778389008    -62.556276523    200.00    -67.00    1.059999920   100.000  1     492.0   0.0     0.000    0.000    0.000    0.000    0.000    0.000    0.000    0.000    0.000    0.000    0      ;
    69      454.794505662    -199.623714616   300.00    -300.00   1.059999950   100.000  1     805.2   0.0     0.000    0.000    0.000    0.000    0.000    0.000    0.000    0.000    0.000    0.000    0      ;
    70      0.000245141      16.257890078     32.00     -10.00    1.039601960   100.000  1     100.0   0.0     0.000    0.000    0.000    0.000    0.000    0.000    0.000    0.000    0.000    0.000    0      ;
    72      0.000305594      -5.233053775     100.00    -100.00   1.042326998   100.000  1     100.0   0.0     0.000    0.000    0.000    0.000    0.000    0.000    0.000    0.000    0.000    0.000    0      ;
    73      0.000487171      -2.224230040     100.00    -100.00   1.038958420   100.000  1     100.0   0.0     0.000    0.000    0.000    0.000    0.000    0.000    0.000    0.000    0.000    0.000    0      ;
    74      17.432971693     8.285388495      9.00      -6.00     1.031659965   100.000  1     100.0   0.0     0.000    0.000    0.000    0.000    0.000    0.000    0.000    0.000    0.000    0.000    0      ;
    76      23.309423469     22.999846212     23.00     -8.00     1.015322103   100.000  1     100.0   0.0     0.000    0.000    0.000    0.000    0.000    0.000    0.000    0.000    0.000    0.000    0      ;
    77      0.000048103      57.466332944     70.00     -20.00    1.047792456   100.000  1     100.0   0.0     0.000    0.000    0.000    0.000    0.000    0.000    0.000    0.000    0.000    0.000    0      ;
    80      431.684794650    6.762625337      280.00    -165.00   1.059999750   100.000  1     577.0   0.0     0.000    0.000    0.000    0.000    0.000    0.000    0.000    0.000    0.000    0.000    0      ;
    85      0.000022281      22.999373641     23.00     -8.00     1.052299448   100.000  1     100.0   0.0     0.000    0.000    0.000    0.000    0.000    0.000    0.000    0.000    0.000    0.000    0      ;
    87      3.629926456      2.927519878      1000.00   -100.00   1.057010854   100.000  1     104.0   0.0     0.000    0.000    0.000    0.000    0.000    0.000    0.000    0.000    0.000    0.000    0      ;
    89      502.420376289    -26.987529855    300.00    -210.00   1.059999961   100.000  1     707.0   0.0     0.000    0.000    0.000    0.000    0.000    0.000    0.000    0.000    0.000    0.000    0      ;
    90      0.000029080      47.220299102     300.00    -300.00   1.041808102   100.000  1     100.0   0.0     0.000    0.000    0.000    0.000    0.000    0.000    0.000    0.000    0.000    0.000    0      ;
    91      0.000026607      1.425051198      100.00    -100.00   1.045704947   100.000  1     100.0   0.0     0.000    0.000    0.000    0.000    0.000    0.000    0.000    0.000    0.000    0.000    0      ;
    92      0.000020704      8.999544173      9.00      -3.00     1.050260844   100.000  1     100.0   0.0     0.000    0.000    0.000    0.000    0.000    0.000    0.000    0.000    0.000    0.000    0      ;
    99      0.000038001      -3.189827951     100.00    -100.00   1.054123770   100.000  1     100.0   0.0     0.000    0.000    0.000    0.000    0.000    0.000    0.000    0.000    0.000    0.000    0      ;
    100     231.511390379    44.024389607     155.00    -50.00    1.058566404   100.000  1     352.0   0.0     0.000    0.000    0.000    0.000    0.000    0.000    0.000    0.000    0.000    0.000    0      ;
    103     38.269773639     11.774072078     40.00     -15.00    1.051552216   100.000  1     140.0   0.0     0.000    0.000    0.000    0.000    0.000    0.000    0.000    0.000    0.000    0.000    0      ;
    104     0.001087580      22.812991752     23.00     -8.00     1.042707409   100.000  1     100.0   0.0     0.000    0.000    0.000    0.000    0.000    0.000    0.000    0.000    0.000    0.000    0      ;
    105     5.524049854      22.487691113     23.00     -8.00     1.040441568   100.000  1     100.0   0.0     0.000    0.000    0.000    0.000    0.000    0.000    0.000    0.000    0.000    0.000    0      ;
    107     29.217703424     -10.045328743    200.00    -200.00   1.034399837   100.000  1     100.0   0.0     0.000    0.000    0.000    0.000    0.000    0.000    0.000    0.000    0.000    0.000    0      ;
    110     7.237222718      22.264825954     23.00     -8.00     1.041607212   100.000  1     100.0   0.0     0.000    0.000    0.000    0.000    0.000    0.000    0.000    0.000    0.000    0.000    0      ;
    111     35.249149609     -0.201061688     1000.00   -100.00   1.049340726   100.000  1     136.0   0.0     0.000    0.000    0.000    0.000    0.000    0.000    0.000    0.000    0.000    0.000    0      ;
    112     36.582153196     10.315687427     1000.00   -100.00   1.034311260   100.000  1     100.0   0.0     0.000    0.000    0.000    0.000    0.000    0.000    0.000    0.000    0.000    0.000    0      ;
    113     0.000238131      -7.582182572     200.00    -100.00   1.056525813   100.000  1     100.0   0.0     0.000    0.000    0.000    0.000    0.000    0.000    0.000    0.000    0.000    0.000    0      ;
    116     0.000024773      35.471687167     1000.00   -1000.00  1.057798705   100.000  1     100.0   0.0     0.000    0.000    0.000    0.000    0.000    0.000    0.000    0.000    0.000    0.000    0      ;
];


%%    generator    cost    data
%    1    startup    shutdown    n    x1    y1    ...    xn    yn
%    2    startup    shutdown    n    c(n-1)    ...    c0
mpc.gencost = [
    2       0.000000000      0.000000000      3         0.010000000        40.000000000       0.000000000        ;
    2       0.000000000      0.000000000      3         0.010000000        40.000000000       0.000000000        ;
    2       0.000000000      0.000000000      3         0.010000000        40.000000000       0.000000000        ;
    2       0.000000000      0.000000000      3         0.010000000        40.000000000       0.000000000        ;
    2       0.000000000      0.000000000      3         0.022222200        20.000000000       0.000000000        ;
    2       0.000000000      0.000000000      3         0.117647000        20.000000000       0.000000000        ;
    2       0.000000000      0.000000000      3         0.010000000        40.000000000       0.000000000        ;
    2       0.000000000      0.000000000      3         0.010000000        40.000000000       0.000000000        ;
    2       0.000000000      0.000000000      3         0.010000000        40.000000000       0.000000000        ;
    2       0.000000000      0.000000000      3         0.010000000        40.000000000       0.000000000        ;
    2       0.000000000      0.000000000      3         0.045454500        20.000000000       0.000000000        ;
    2       0.000000000      0.000000000      3         0.031847100        20.000000000       0.000000000        ;
    2       0.000000000      0.000000000      3         0.010000000        40.000000000       0.000000000        ;
    2       0.000000000      0.000000000      3         1.428570000        20.000000000       0.000000000        ;
    2       0.000000000      0.000000000      3         0.010000000        40.000000000       0.000000000        ;
    2       0.000000000      0.000000000      3         0.010000000        40.000000000       0.000000000        ;
    2       0.000000000      0.000000000      3         0.010000000        40.000000000       0.000000000        ;
    2       0.000000000      0.000000000      3         0.010000000        40.000000000       0.000000000        ;
    2       0.000000000      0.000000000      3         0.010000000        40.000000000       0.000000000        ;
    2       0.000000000      0.000000000      3         0.526316000        20.000000000       0.000000000        ;
    2       0.000000000      0.000000000      3         0.049019600        20.000000000       0.000000000        ;
    2       0.000000000      0.000000000      3         0.208333000        20.000000000       0.000000000        ;
    2       0.000000000      0.000000000      3         0.010000000        40.000000000       0.000000000        ;
    2       0.000000000      0.000000000      3         0.010000000        40.000000000       0.000000000        ;
    2       0.000000000      0.000000000      3         0.064516100        20.000000000       0.000000000        ;
    2       0.000000000      0.000000000      3         0.062500000        20.000000000       0.000000000        ;
    2       0.000000000      0.000000000      3         0.010000000        40.000000000       0.000000000        ;
...